examples/Nordic/data/inputs/operating_point_7/Nordic.xiidm
<?xml version="1.0" encoding="UTF-8"?>
<iidm:network xmlns:iidm="http://www.powsybl.org/schema/iidm/1_5" id="Nordic32_corrige" caseDate="2019-07-30T16:39:00+02:00" forecastDistance="0" sourceFormat="NF">
    <iidm:substation id="_19fe9db0-63e5-4f87-a503-0867c0a01369" country="FR" tso="RTE">
        <iidm:voltageLevel id="1011_130" nominalV="130" highVoltageLimit="136.5" topologyKind="BUS_BREAKER">
            <iidm:busBreakerTopology>
                <iidm:bus id="1011_131" v="147.26416572877292" angle="20.336188720666847"/>
            </iidm:busBreakerTopology>
        </iidm:voltageLevel>
        <iidm:voltageLevel id="4011_400" nominalV="400" highVoltageLimit="420" topologyKind="BUS_BREAKER">
            <iidm:busBreakerTopology>
                <iidm:bus id="4011_401" v="435.97599012086602" angle="20.610264444732962"/>
            </iidm:busBreakerTopology>
        </iidm:voltageLevel>
        <iidm:voltageLevel id="B11___20" nominalV="20" highVoltageLimit="21" topologyKind="BUS_BREAKER">
            <iidm:busBreakerTopology>
                <iidm:bus id="B11___21" v="21.388415013001261" angle="19.011812202428697"/>
            </iidm:busBreakerTopology>
            <iidm:load id="11_1" loadType="UNDEFINED" p0="199.99400329589844" q0="68.7958984375" bus="B11___21" connectableBus="B11___21" p="106.6652820286826" q="39.138553137768362"/>
        </iidm:voltageLevel>
        <iidm:voltageLevel id="BG09__15" nominalV="15" highVoltageLimit="15.750001907348633" topologyKind="BUS_BREAKER">
            <iidm:busBreakerTopology>
                <iidm:bus id="BG09__11" v="15.053744023263736" angle="21.351688755909521"/>
            </iidm:busBreakerTopology>
            <iidm:generator id="g09" energySource="HYDRO" minP="0" maxP="9999" voltageRegulatorOn="true" targetP="668.5" targetV="14.981999397277832" targetQ="201.25199890136719" bus="BG09__11" connectableBus="BG09__11" p="-89.868505326228274" q="229.94289139841726">
                <iidm:property name="genreCvg" value="AUTRE"/>
                <iidm:reactiveCapabilityCurve>
                    <iidm:point p="0" minQ="-1000" maxQ="1000"/>
                    <iidm:point p="9999" minQ="-1000" maxQ="1000"/>
                </iidm:reactiveCapabilityCurve>
            </iidm:generator>
        </iidm:voltageLevel>
        <iidm:twoWindingsTransformer id="Tr1011-4011" r="0" x="1.3519998788833618" g="0" b="0" ratedU1="400" ratedU2="130" bus1="4011_401" connectableBus1="4011_401" voltageLevelId1="4011_400" bus2="1011_131" connectableBus2="1011_131" voltageLevelId2="1011_130" p1="77.712173193768862" q1="208.19238304373354" p2="-77.71217319376774" q2="-205.19106765421958">
            <iidm:ratioTapChanger lowTapPosition="0" tapPosition="0" loadTapChangingCapabilities="false">
                <iidm:step r="0" x="0" g="0" b="0" rho="1.0526316165924072"/>
                <iidm:step r="0" x="0" g="0" b="0" rho="1.0416667461395264"/>
                <iidm:step r="0" x="0" g="0" b="0" rho="1.0309277772903442"/>
                <iidm:step r="0" x="0" g="0" b="0" rho="1.0204081535339355"/>
                <iidm:step r="0" x="0" g="0" b="0" rho="1.0101009607315063"/>
                <iidm:step r="0" x="0" g="0" b="0" rho="1"/>
                <iidm:step r="0" x="0" g="0" b="0" rho="0.99009901285171509"/>
                <iidm:step r="0" x="0" g="0" b="0" rho="0.98039215803146362"/>
                <iidm:step r="0" x="0" g="0" b="0" rho="0.97087383270263672"/>
                <iidm:step r="0" x="0" g="0" b="0" rho="0.96153849363327026"/>
                <iidm:step r="0" x="0" g="0" b="0" rho="0.95238101482391357"/>
            </iidm:ratioTapChanger>
            <iidm:currentLimits1 permanentLimit="5551.43994140625"/>
            <iidm:currentLimits2 permanentLimit="5551.43994140625"/>
        </iidm:twoWindingsTransformer>
        <iidm:twoWindingsTransformer id="Tr11-1011" r="0" x="0.10000003129243851" g="0" b="0" ratedU1="130" ratedU2="20" bus1="1011_131" connectableBus1="1011_131" voltageLevelId1="1011_130" bus2="B11___21" connectableBus2="B11___21" voltageLevelId2="B11___20" p1="106.66528208647684" q1="41.96048157809647" p2="-106.66528208647685" q2="-39.138553634426849">
            <iidm:ratioTapChanger lowTapPosition="0" tapPosition="25" targetDeadband="0" loadTapChangingCapabilities="true" regulating="true" targetV="20">
                <iidm:terminalRef id="Tr11-1011" side="TWO"/>
                <iidm:step r="0" x="0" g="0" b="0" rho="1.25"/>
                <iidm:step r="0" x="0" g="0" b="0" rho="1.2345678806304932"/>
                <iidm:step r="0" x="0" g="0" b="0" rho="1.2195122241973877"/>
                <iidm:step r="0" x="0" g="0" b="0" rho="1.2048193216323853"/>
                <iidm:step r="0" x="0" g="0" b="0" rho="1.1904761791229248"/>
                <iidm:step r="0" x="0" g="0" b="0" rho="1.1764705181121826"/>
                <iidm:step r="0" x="0" g="0" b="0" rho="1.1627906560897827"/>
                <iidm:step r="0" x="0" g="0" b="0" rho="1.1494252681732178"/>
                <iidm:step r="0" x="0" g="0" b="0" rho="1.1363636255264282"/>
                <iidm:step r="0" x="0" g="0" b="0" rho="1.1235954761505127"/>
                <iidm:step r="0" x="0" g="0" b="0" rho="1.1111111640930176"/>
                <iidm:step r="0" x="0" g="0" b="0" rho="1.0989010334014893"/>
                <iidm:step r="0" x="0" g="0" b="0" rho="1.0869565010070801"/>
                <iidm:step r="0" x="0" g="0" b="0" rho="1.0752688646316528"/>
                <iidm:step r="0" x="0" g="0" b="0" rho="1.063829779624939"/>
                <iidm:step r="0" x="0" g="0" b="0" rho="1.0526316165924072"/>
                <iidm:step r="0" x="0" g="0" b="0" rho="1.0416667461395264"/>
                <iidm:step r="0" x="0" g="0" b="0" rho="1.0309277772903442"/>
                <iidm:step r="0" x="0" g="0" b="0" rho="1.0204081535339355"/>
                <iidm:step r="0" x="0" g="0" b="0" rho="1.0101009607315063"/>
                <iidm:step r="0" x="0" g="0" b="0" rho="1"/>
                <iidm:step r="0" x="0" g="0" b="0" rho="0.99009901285171509"/>
                <iidm:step r="0" x="0" g="0" b="0" rho="0.98039215803146362"/>
                <iidm:step r="0" x="0" g="0" b="0" rho="0.97087383270263672"/>
                <iidm:step r="0" x="0" g="0" b="0" rho="0.96153849363327026"/>
                <iidm:step r="0" x="0" g="0" b="0" rho="0.95238101482391357"/>
                <iidm:step r="0" x="0" g="0" b="0" rho="0.94339627027511597"/>
                <iidm:step r="0" x="0" g="0" b="0" rho="0.93457937240600586"/>
                <iidm:step r="0" x="0" g="0" b="0" rho="0.92592591047286987"/>
                <iidm:step r="0" x="0" g="0" b="0" rho="0.91743117570877075"/>
                <iidm:step r="0" x="0" g="0" b="0" rho="0.90909087657928467"/>
                <iidm:step r="0" x="0" g="0" b="0" rho="0.90090090036392212"/>
                <iidm:step r="0" x="0" g="0" b="0" rho="0.8928571343421936"/>
            </iidm:ratioTapChanger>
            <iidm:currentLimits1 permanentLimit="11547"/>
            <iidm:currentLimits2 permanentLimit="11547"/>
        </iidm:twoWindingsTransformer>
        <iidm:twoWindingsTransformer id="Tr4011-g9" r="0" x="0.033750001341104507" g="0" b="0" ratedU1="400" ratedU2="15" bus1="4011_401" connectableBus1="4011_401" voltageLevelId1="4011_400" bus2="BG09__11" connectableBus2="BG09__11" voltageLevelId2="BG09__15" p1="-89.868474908203055" q1="239.02023955030515" p2="89.868474908203211" q2="-229.94289139841752">
            <iidm:ratioTapChanger lowTapPosition="0" tapPosition="10" loadTapChangingCapabilities="false">
                <iidm:step r="0" x="0" g="0" b="0" rho="1.0526316165924072"/>
                <iidm:step r="0" x="0" g="0" b="0" rho="1.0416667461395264"/>
                <iidm:step r="0" x="0" g="0" b="0" rho="1.0309277772903442"/>
                <iidm:step r="0" x="0" g="0" b="0" rho="1.0204081535339355"/>
                <iidm:step r="0" x="0" g="0" b="0" rho="1.0101009607315063"/>
                <iidm:step r="0" x="0" g="0" b="0" rho="1"/>
                <iidm:step r="0" x="0" g="0" b="0" rho="0.99009901285171509"/>
                <iidm:step r="0" x="0" g="0" b="0" rho="0.98039215803146362"/>
                <iidm:step r="0" x="0" g="0" b="0" rho="0.97087383270263672"/>
                <iidm:step r="0" x="0" g="0" b="0" rho="0.96153849363327026"/>
                <iidm:step r="0" x="0" g="0" b="0" rho="0.95238101482391357"/>
            </iidm:ratioTapChanger>
            <iidm:currentLimits1 permanentLimit="38490"/>
            <iidm:currentLimits2 permanentLimit="38490"/>
        </iidm:twoWindingsTransformer>
    </iidm:substation>
    <iidm:substation id="_2733fb31-de68-473c-bbb7-234a34f4d82f" country="FR" tso="RTE">
        <iidm:voltageLevel id="1012_130" nominalV="130" highVoltageLimit="136.5" topologyKind="BUS_BREAKER">
            <iidm:busBreakerTopology>
                <iidm:bus id="1012_131" v="144.24758728175559" angle="20.908204566069351"/>
            </iidm:busBreakerTopology>
        </iidm:voltageLevel>
        <iidm:voltageLevel id="4012_400" nominalV="400" highVoltageLimit="420" topologyKind="BUS_BREAKER">
            <iidm:busBreakerTopology>
                <iidm:bus id="4012_401" v="431.35999866653532" angle="20.7881545168988"/>
            </iidm:busBreakerTopology>
            <iidm:shunt id="4012-Ind" sectionCount="1" voltageRegulatorOn="false" bus="4012_401" connectableBus="4012_401" q="116.29465268160774">
                <iidm:property name="qMax" value="-100"/>
                <iidm:shuntLinearModel bPerSection="-0.00062499998603016138" maximumSectionCount="1"/>
            </iidm:shunt>
        </iidm:voltageLevel>
        <iidm:voltageLevel id="B12___20" nominalV="20" highVoltageLimit="21" topologyKind="BUS_BREAKER">
            <iidm:busBreakerTopology>
                <iidm:bus id="B12___21" v="20.981973759520841" angle="19.54921550983012"/>
            </iidm:busBreakerTopology>
            <iidm:load id="12_1" loadType="UNDEFINED" p0="300.00201416015625" q0="83.801200866699219" bus="B12___21" connectableBus="B12___21" p="157.75948511657711" q="46.347131179268182"/>
        </iidm:voltageLevel>
        <iidm:voltageLevel id="BG01__15" nominalV="15" highVoltageLimit="15.750001907348633" topologyKind="BUS_BREAKER">
            <iidm:busBreakerTopology>
                <iidm:bus id="BG01__11" v="16.076172330829767" angle="22.144266461898255"/>
            </iidm:busBreakerTopology>
            <iidm:generator id="g01" energySource="HYDRO" minP="0" maxP="9999" voltageRegulatorOn="true" targetP="600" targetV="16.025999069213867" targetQ="58.340000152587891" bus="BG01__11" connectableBus="BG01__11" p="-136.81673620900844" q="214.88510827738941">
                <iidm:property name="genreCvg" value="AUTRE"/>
                <iidm:reactiveCapabilityCurve>
                    <iidm:point p="0" minQ="-800" maxQ="800"/>
                    <iidm:point p="9999" minQ="-800" maxQ="800"/>
                </iidm:reactiveCapabilityCurve>
            </iidm:generator>
        </iidm:voltageLevel>
        <iidm:voltageLevel id="BG10__15" nominalV="15" highVoltageLimit="15.750001907348633" topologyKind="BUS_BREAKER">
            <iidm:busBreakerTopology>
                <iidm:bus id="BG10__11" v="15.294085835647728" angle="22.194656390953423"/>
            </iidm:busBreakerTopology>
            <iidm:generator id="g10" energySource="HYDRO" minP="0" maxP="9999" voltageRegulatorOn="true" targetP="600" targetV="15.235500335693359" targetQ="255.70100402832031" bus="BG10__11" connectableBus="BG10__11" p="-137.08683051167588" q="38.785923142649402">
                <iidm:property name="genreCvg" value="AUTRE"/>
                <iidm:reactiveCapabilityCurve>
                    <iidm:point p="0" minQ="-800" maxQ="800"/>
                    <iidm:point p="9999" minQ="-800" maxQ="800"/>
                </iidm:reactiveCapabilityCurve>
            </iidm:generator>
        </iidm:voltageLevel>
        <iidm:twoWindingsTransformer id="Tr1012-4012" r="0" x="1.3519998788833618" g="0" b="0" ratedU1="400" ratedU2="130" bus1="4012_401" connectableBus1="4012_401" voltageLevelId1="4012_400" bus2="1012_131" connectableBus2="1012_131" voltageLevelId2="1012_130" p1="-32.989135714477044" q1="362.73325405904518" p2="32.989135714475857" q2="-354.49700508124681">
            <iidm:ratioTapChanger lowTapPosition="0" tapPosition="0" loadTapChangingCapabilities="false">
                <iidm:step r="0" x="0" g="0" b="0" rho="1.0526316165924072"/>
                <iidm:step r="0" x="0" g="0" b="0" rho="1.0416667461395264"/>
                <iidm:step r="0" x="0" g="0" b="0" rho="1.0309277772903442"/>
                <iidm:step r="0" x="0" g="0" b="0" rho="1.0204081535339355"/>
                <iidm:step r="0" x="0" g="0" b="0" rho="1.0101009607315063"/>
                <iidm:step r="0" x="0" g="0" b="0" rho="1"/>
                <iidm:step r="0" x="0" g="0" b="0" rho="0.99009901285171509"/>
                <iidm:step r="0" x="0" g="0" b="0" rho="0.98039215803146362"/>
                <iidm:step r="0" x="0" g="0" b="0" rho="0.97087383270263672"/>
                <iidm:step r="0" x="0" g="0" b="0" rho="0.96153849363327026"/>
                <iidm:step r="0" x="0" g="0" b="0" rho="0.95238101482391357"/>
            </iidm:ratioTapChanger>
            <iidm:currentLimits1 permanentLimit="5551.43994140625"/>
            <iidm:currentLimits2 permanentLimit="5551.43994140625"/>
        </iidm:twoWindingsTransformer>
        <iidm:twoWindingsTransformer id="Tr1012-g1" r="0" x="0.042187508195638657" g="0" b="0" ratedU1="130" ratedU2="15" bus1="1012_131" connectableBus1="1012_131" voltageLevelId1="1012_130" bus2="BG01__11" connectableBus2="BG01__11" voltageLevelId2="BG01__15" p1="-136.81670949312462" q1="225.4782781200671" p2="136.81670949312462" q2="-214.88510827739026">
            <iidm:ratioTapChanger lowTapPosition="0" tapPosition="5" loadTapChangingCapabilities="false">
                <iidm:step r="0" x="0" g="0" b="0" rho="1.0526316165924072"/>
                <iidm:step r="0" x="0" g="0" b="0" rho="1.0416667461395264"/>
                <iidm:step r="0" x="0" g="0" b="0" rho="1.0309277772903442"/>
                <iidm:step r="0" x="0" g="0" b="0" rho="1.0204081535339355"/>
                <iidm:step r="0" x="0" g="0" b="0" rho="1.0101009607315063"/>
                <iidm:step r="0" x="0" g="0" b="0" rho="1"/>
                <iidm:step r="0" x="0" g="0" b="0" rho="0.99009901285171509"/>
                <iidm:step r="0" x="0" g="0" b="0" rho="0.98039215803146362"/>
                <iidm:step r="0" x="0" g="0" b="0" rho="0.97087383270263672"/>
                <iidm:step r="0" x="0" g="0" b="0" rho="0.96153849363327026"/>
                <iidm:step r="0" x="0" g="0" b="0" rho="0.95238101482391357"/>
            </iidm:ratioTapChanger>
            <iidm:currentLimits1 permanentLimit="30791.998046875"/>
            <iidm:currentLimits2 permanentLimit="30791.998046875"/>
        </iidm:twoWindingsTransformer>
        <iidm:twoWindingsTransformer id="Tr12-1012" r="0" x="0.066666767001152039" g="0" b="0" ratedU1="130" ratedU2="20" bus1="1012_131" connectableBus1="1012_131" voltageLevelId1="1012_130" bus2="B12___21" connectableBus2="B12___21" voltageLevelId2="B12___20" p1="157.7594852936395" q1="50.441255834108048" p2="-157.75948529363916" q2="-46.347132229569034">
            <iidm:ratioTapChanger lowTapPosition="0" tapPosition="25" targetDeadband="0" loadTapChangingCapabilities="true" regulating="true" targetV="20">
                <iidm:terminalRef id="Tr12-1012" side="TWO"/>
                <iidm:step r="0" x="0" g="0" b="0" rho="1.25"/>
                <iidm:step r="0" x="0" g="0" b="0" rho="1.2345678806304932"/>
                <iidm:step r="0" x="0" g="0" b="0" rho="1.2195122241973877"/>
                <iidm:step r="0" x="0" g="0" b="0" rho="1.2048193216323853"/>
                <iidm:step r="0" x="0" g="0" b="0" rho="1.1904761791229248"/>
                <iidm:step r="0" x="0" g="0" b="0" rho="1.1764705181121826"/>
                <iidm:step r="0" x="0" g="0" b="0" rho="1.1627906560897827"/>
                <iidm:step r="0" x="0" g="0" b="0" rho="1.1494252681732178"/>
                <iidm:step r="0" x="0" g="0" b="0" rho="1.1363636255264282"/>
                <iidm:step r="0" x="0" g="0" b="0" rho="1.1235954761505127"/>
                <iidm:step r="0" x="0" g="0" b="0" rho="1.1111111640930176"/>
                <iidm:step r="0" x="0" g="0" b="0" rho="1.0989010334014893"/>
                <iidm:step r="0" x="0" g="0" b="0" rho="1.0869565010070801"/>
                <iidm:step r="0" x="0" g="0" b="0" rho="1.0752688646316528"/>
                <iidm:step r="0" x="0" g="0" b="0" rho="1.063829779624939"/>
                <iidm:step r="0" x="0" g="0" b="0" rho="1.0526316165924072"/>
                <iidm:step r="0" x="0" g="0" b="0" rho="1.0416667461395264"/>
                <iidm:step r="0" x="0" g="0" b="0" rho="1.0309277772903442"/>
                <iidm:step r="0" x="0" g="0" b="0" rho="1.0204081535339355"/>
                <iidm:step r="0" x="0" g="0" b="0" rho="1.0101009607315063"/>
                <iidm:step r="0" x="0" g="0" b="0" rho="1"/>
                <iidm:step r="0" x="0" g="0" b="0" rho="0.99009901285171509"/>
                <iidm:step r="0" x="0" g="0" b="0" rho="0.98039215803146362"/>
                <iidm:step r="0" x="0" g="0" b="0" rho="0.97087383270263672"/>
                <iidm:step r="0" x="0" g="0" b="0" rho="0.96153849363327026"/>
                <iidm:step r="0" x="0" g="0" b="0" rho="0.95238101482391357"/>
                <iidm:step r="0" x="0" g="0" b="0" rho="0.94339627027511597"/>
                <iidm:step r="0" x="0" g="0" b="0" rho="0.93457937240600586"/>
                <iidm:step r="0" x="0" g="0" b="0" rho="0.92592591047286987"/>
                <iidm:step r="0" x="0" g="0" b="0" rho="0.91743117570877075"/>
                <iidm:step r="0" x="0" g="0" b="0" rho="0.90909087657928467"/>
                <iidm:step r="0" x="0" g="0" b="0" rho="0.90090090036392212"/>
                <iidm:step r="0" x="0" g="0" b="0" rho="0.8928571343421936"/>
            </iidm:ratioTapChanger>
            <iidm:currentLimits1 permanentLimit="17320.5"/>
            <iidm:currentLimits2 permanentLimit="17320.5"/>
        </iidm:twoWindingsTransformer>
        <iidm:twoWindingsTransformer id="Tr4012-g10" r="0" x="0.04218750074505806" g="0" b="0" ratedU1="400" ratedU2="15" bus1="4012_401" connectableBus1="4012_401" voltageLevelId1="4012_400" bus2="BG10__11" connectableBus2="BG10__11" voltageLevelId2="BG10__15" p1="-137.08680520145612" q1="42.446686017621872" p2="137.08680520145597" q2="-38.78592314264958">
            <iidm:ratioTapChanger lowTapPosition="0" tapPosition="10" loadTapChangingCapabilities="false">
                <iidm:step r="0" x="0" g="0" b="0" rho="1.0526316165924072"/>
                <iidm:step r="0" x="0" g="0" b="0" rho="1.0416667461395264"/>
                <iidm:step r="0" x="0" g="0" b="0" rho="1.0309277772903442"/>
                <iidm:step r="0" x="0" g="0" b="0" rho="1.0204081535339355"/>
                <iidm:step r="0" x="0" g="0" b="0" rho="1.0101009607315063"/>
                <iidm:step r="0" x="0" g="0" b="0" rho="1"/>
                <iidm:step r="0" x="0" g="0" b="0" rho="0.99009901285171509"/>
                <iidm:step r="0" x="0" g="0" b="0" rho="0.98039215803146362"/>
                <iidm:step r="0" x="0" g="0" b="0" rho="0.97087383270263672"/>
                <iidm:step r="0" x="0" g="0" b="0" rho="0.96153849363327026"/>
                <iidm:step r="0" x="0" g="0" b="0" rho="0.95238101482391357"/>
            </iidm:ratioTapChanger>
            <iidm:currentLimits1 permanentLimit="30792"/>
            <iidm:currentLimits2 permanentLimit="30792"/>
        </iidm:twoWindingsTransformer>
    </iidm:substation>
    <iidm:substation id="_3dd84004-1feb-4d62-bf15-4ae3dcc30bc4" country="FR" tso="RTE">
        <iidm:voltageLevel id="1013_130" nominalV="130" highVoltageLimit="136.5" topologyKind="BUS_BREAKER">
            <iidm:busBreakerTopology>
                <iidm:bus id="1013_131" v="140.81864634124184" angle="21.194611004830175"/>
            </iidm:busBreakerTopology>
        </iidm:voltageLevel>
        <iidm:voltageLevel id="B13___20" nominalV="20" highVoltageLimit="21" topologyKind="BUS_BREAKER">
            <iidm:busBreakerTopology>
                <iidm:bus id="B13___21" v="20.646013728343373" angle="19.813282733311731"/>
            </iidm:busBreakerTopology>
            <iidm:load id="13_1" loadType="UNDEFINED" p0="100.00299835205078" q0="34.401699066162109" bus="B13___21" connectableBus="B13___21" p="51.83842043756195" q="18.487890687032234"/>
        </iidm:voltageLevel>
        <iidm:voltageLevel id="BG02__15" nominalV="15" highVoltageLimit="15.750001907348633" topologyKind="BUS_BREAKER">
            <iidm:busBreakerTopology>
                <iidm:bus id="BG02__11" v="15.849280806633661" angle="21.092954345757562"/>
            </iidm:busBreakerTopology>
            <iidm:generator id="g02" energySource="HYDRO" minP="0" maxP="9999" voltageRegulatorOn="true" targetP="300" targetV="15.847498893737793" targetQ="17.233400344848633" bus="BG02__11" connectableBus="BG02__11" p="8.122843510909572" q="112.42392117895645">
                <iidm:property name="genreCvg" value="AUTRE"/>
                <iidm:reactiveCapabilityCurve>
                    <iidm:point p="0" minQ="-600" maxQ="600"/>
                    <iidm:point p="9999" minQ="-600" maxQ="600"/>
                </iidm:reactiveCapabilityCurve>
            </iidm:generator>
        </iidm:voltageLevel>
        <iidm:twoWindingsTransformer id="Tr1013-g2" r="0" x="0.056250009685754776" g="0" b="0" ratedU1="130" ratedU2="15" bus1="1013_131" connectableBus1="1013_131" voltageLevelId1="1013_130" bus2="BG02__11" connectableBus2="BG02__11" voltageLevelId2="BG02__15" p1="8.1228419443829409" q1="115.26892075174908" p2="-8.1228419443829356" q2="-112.4239211789566">
            <iidm:ratioTapChanger lowTapPosition="0" tapPosition="5" loadTapChangingCapabilities="false">
                <iidm:step r="0" x="0" g="0" b="0" rho="1.0526316165924072"/>
                <iidm:step r="0" x="0" g="0" b="0" rho="1.0416667461395264"/>
                <iidm:step r="0" x="0" g="0" b="0" rho="1.0309277772903442"/>
                <iidm:step r="0" x="0" g="0" b="0" rho="1.0204081535339355"/>
                <iidm:step r="0" x="0" g="0" b="0" rho="1.0101009607315063"/>
                <iidm:step r="0" x="0" g="0" b="0" rho="1"/>
                <iidm:step r="0" x="0" g="0" b="0" rho="0.99009901285171509"/>
                <iidm:step r="0" x="0" g="0" b="0" rho="0.98039215803146362"/>
                <iidm:step r="0" x="0" g="0" b="0" rho="0.97087383270263672"/>
                <iidm:step r="0" x="0" g="0" b="0" rho="0.96153849363327026"/>
                <iidm:step r="0" x="0" g="0" b="0" rho="0.95238101482391357"/>
            </iidm:ratioTapChanger>
            <iidm:currentLimits1 permanentLimit="23094"/>
            <iidm:currentLimits2 permanentLimit="23094"/>
        </iidm:twoWindingsTransformer>
        <iidm:twoWindingsTransformer id="Tr13-1013" r="0" x="0.20000006258487701" g="0" b="0" ratedU1="130" ratedU2="20" bus1="1013_131" connectableBus1="1013_131" voltageLevelId1="1013_130" bus2="B13___21" connectableBus2="B13___21" voltageLevelId2="B13___20" p1="51.83842052514219" q1="19.909108189198825" p2="-51.838420525142347" q2="-18.487891113829917">
            <iidm:ratioTapChanger lowTapPosition="0" tapPosition="24" targetDeadband="0" loadTapChangingCapabilities="true" regulating="true" targetV="20">
                <iidm:terminalRef id="Tr13-1013" side="TWO"/>
                <iidm:step r="0" x="0" g="0" b="0" rho="1.25"/>
                <iidm:step r="0" x="0" g="0" b="0" rho="1.2345678806304932"/>
                <iidm:step r="0" x="0" g="0" b="0" rho="1.2195122241973877"/>
                <iidm:step r="0" x="0" g="0" b="0" rho="1.2048193216323853"/>
                <iidm:step r="0" x="0" g="0" b="0" rho="1.1904761791229248"/>
                <iidm:step r="0" x="0" g="0" b="0" rho="1.1764705181121826"/>
                <iidm:step r="0" x="0" g="0" b="0" rho="1.1627906560897827"/>
                <iidm:step r="0" x="0" g="0" b="0" rho="1.1494252681732178"/>
                <iidm:step r="0" x="0" g="0" b="0" rho="1.1363636255264282"/>
                <iidm:step r="0" x="0" g="0" b="0" rho="1.1235954761505127"/>
                <iidm:step r="0" x="0" g="0" b="0" rho="1.1111111640930176"/>
                <iidm:step r="0" x="0" g="0" b="0" rho="1.0989010334014893"/>
                <iidm:step r="0" x="0" g="0" b="0" rho="1.0869565010070801"/>
                <iidm:step r="0" x="0" g="0" b="0" rho="1.0752688646316528"/>
                <iidm:step r="0" x="0" g="0" b="0" rho="1.063829779624939"/>
                <iidm:step r="0" x="0" g="0" b="0" rho="1.0526316165924072"/>
                <iidm:step r="0" x="0" g="0" b="0" rho="1.0416667461395264"/>
                <iidm:step r="0" x="0" g="0" b="0" rho="1.0309277772903442"/>
                <iidm:step r="0" x="0" g="0" b="0" rho="1.0204081535339355"/>
                <iidm:step r="0" x="0" g="0" b="0" rho="1.0101009607315063"/>
                <iidm:step r="0" x="0" g="0" b="0" rho="1"/>
                <iidm:step r="0" x="0" g="0" b="0" rho="0.99009901285171509"/>
                <iidm:step r="0" x="0" g="0" b="0" rho="0.98039215803146362"/>
                <iidm:step r="0" x="0" g="0" b="0" rho="0.97087383270263672"/>
                <iidm:step r="0" x="0" g="0" b="0" rho="0.96153849363327026"/>
                <iidm:step r="0" x="0" g="0" b="0" rho="0.95238101482391357"/>
                <iidm:step r="0" x="0" g="0" b="0" rho="0.94339627027511597"/>
                <iidm:step r="0" x="0" g="0" b="0" rho="0.93457937240600586"/>
                <iidm:step r="0" x="0" g="0" b="0" rho="0.92592591047286987"/>
                <iidm:step r="0" x="0" g="0" b="0" rho="0.91743117570877075"/>
                <iidm:step r="0" x="0" g="0" b="0" rho="0.90909087657928467"/>
                <iidm:step r="0" x="0" g="0" b="0" rho="0.90090090036392212"/>
                <iidm:step r="0" x="0" g="0" b="0" rho="0.8928571343421936"/>
            </iidm:ratioTapChanger>
            <iidm:currentLimits1 permanentLimit="5773.5"/>
            <iidm:currentLimits2 permanentLimit="5773.5"/>
        </iidm:twoWindingsTransformer>
    </iidm:substation>
    <iidm:substation id="_6b684b57-105e-4777-b95c-3f07617803dd" country="FR" tso="RTE">
        <iidm:voltageLevel id="1014_130" nominalV="130" highVoltageLimit="136.5" topologyKind="BUS_BREAKER">
            <iidm:busBreakerTopology>
                <iidm:bus id="1014_131" v="140.4745029004722" angle="22.338831929241408"/>
            </iidm:busBreakerTopology>
        </iidm:voltageLevel>
        <iidm:voltageLevel id="BG03__15" nominalV="15" highVoltageLimit="15.750001907348633" topologyKind="BUS_BREAKER">
            <iidm:busBreakerTopology>
                <iidm:bus id="BG03__11" v="15.905807138684322" angle="23.889895657480029"/>
            </iidm:busBreakerTopology>
            <iidm:generator id="g03" energySource="HYDRO" minP="0" maxP="9999" voltageRegulatorOn="true" targetP="550" targetV="15.892499923706055" targetQ="20.913200378417969" bus="BG03__11" connectableBus="BG03__11" p="-144.73684626864949" q="97.930379801705698">
                <iidm:property name="genreCvg" value="AUTRE"/>
                <iidm:reactiveCapabilityCurve>
                    <iidm:point p="0" minQ="-700" maxQ="700"/>
                    <iidm:point p="9999" minQ="-700" maxQ="700"/>
                </iidm:reactiveCapabilityCurve>
            </iidm:generator>
        </iidm:voltageLevel>
        <iidm:twoWindingsTransformer id="Tr1014-g3" r="0" x="0.048214320093393326" g="0" b="0" ratedU1="130" ratedU2="15" bus1="1014_131" connectableBus1="1014_131" voltageLevelId1="1014_130" bus2="BG03__11" connectableBus2="BG03__11" voltageLevelId2="BG03__15" p1="-144.73682415152638" q1="103.75035272085601" p2="144.73682415152638" q2="-97.93037980170584">
            <iidm:ratioTapChanger lowTapPosition="0" tapPosition="5" loadTapChangingCapabilities="false">
                <iidm:step r="0" x="0" g="0" b="0" rho="1.0526316165924072"/>
                <iidm:step r="0" x="0" g="0" b="0" rho="1.0416667461395264"/>
                <iidm:step r="0" x="0" g="0" b="0" rho="1.0309277772903442"/>
                <iidm:step r="0" x="0" g="0" b="0" rho="1.0204081535339355"/>
                <iidm:step r="0" x="0" g="0" b="0" rho="1.0101009607315063"/>
                <iidm:step r="0" x="0" g="0" b="0" rho="1"/>
                <iidm:step r="0" x="0" g="0" b="0" rho="0.99009901285171509"/>
                <iidm:step r="0" x="0" g="0" b="0" rho="0.98039215803146362"/>
                <iidm:step r="0" x="0" g="0" b="0" rho="0.97087383270263672"/>
                <iidm:step r="0" x="0" g="0" b="0" rho="0.96153849363327026"/>
                <iidm:step r="0" x="0" g="0" b="0" rho="0.95238101482391357"/>
            </iidm:ratioTapChanger>
            <iidm:currentLimits1 permanentLimit="26943"/>
            <iidm:currentLimits2 permanentLimit="26943"/>
        </iidm:twoWindingsTransformer>
    </iidm:substation>
    <iidm:substation id="_aa90c941-14e3-4c16-8ed4-513a0206d631" country="FR" tso="RTE">
        <iidm:voltageLevel id="1021_130" nominalV="130" highVoltageLimit="136.5" topologyKind="BUS_BREAKER">
            <iidm:busBreakerTopology>
                <iidm:bus id="1021_131" v="138.5642132746074" angle="25.217892206597298"/>
            </iidm:busBreakerTopology>
        </iidm:voltageLevel>
        <iidm:voltageLevel id="BG04__15" nominalV="15" highVoltageLimit="15.750001907348633" topologyKind="BUS_BREAKER">
            <iidm:busBreakerTopology>
                <iidm:bus id="BG04__11" v="15.461396912115781" angle="25.906032889140306"/>
            </iidm:busBreakerTopology>
            <iidm:generator id="g04" energySource="HYDRO" minP="0" maxP="9999" voltageRegulatorOn="true" targetP="400" targetV="15.508500099182129" targetQ="30.375099182128906" bus="BG04__11" connectableBus="BG04__11" p="-52.780028774077671" q="144.47908149840856">
                <iidm:property name="genreCvg" value="AUTRE"/>
                <iidm:reactiveCapabilityCurve>
                    <iidm:point p="0" minQ="-600" maxQ="600"/>
                    <iidm:point p="9999" minQ="-600" maxQ="600"/>
                </iidm:reactiveCapabilityCurve>
            </iidm:generator>
        </iidm:voltageLevel>
        <iidm:twoWindingsTransformer id="Tr1021-g4" r="0" x="0.056250009685754776" g="0" b="0" ratedU1="130" ratedU2="15" bus1="1021_131" connectableBus1="1021_131" voltageLevelId1="1021_130" bus2="BG04__11" connectableBus2="BG04__11" voltageLevelId2="BG04__15" p1="-52.779986533794464" q1="150.0463047174882" p2="52.779986533794464" q2="-144.47908149840828">
            <iidm:ratioTapChanger lowTapPosition="0" tapPosition="5" loadTapChangingCapabilities="false">
                <iidm:step r="0" x="0" g="0" b="0" rho="1.0526316165924072"/>
                <iidm:step r="0" x="0" g="0" b="0" rho="1.0416667461395264"/>
                <iidm:step r="0" x="0" g="0" b="0" rho="1.0309277772903442"/>
                <iidm:step r="0" x="0" g="0" b="0" rho="1.0204081535339355"/>
                <iidm:step r="0" x="0" g="0" b="0" rho="1.0101009607315063"/>
                <iidm:step r="0" x="0" g="0" b="0" rho="1"/>
                <iidm:step r="0" x="0" g="0" b="0" rho="0.99009901285171509"/>
                <iidm:step r="0" x="0" g="0" b="0" rho="0.98039215803146362"/>
                <iidm:step r="0" x="0" g="0" b="0" rho="0.97087383270263672"/>
                <iidm:step r="0" x="0" g="0" b="0" rho="0.96153849363327026"/>
                <iidm:step r="0" x="0" g="0" b="0" rho="0.95238101482391357"/>
            </iidm:ratioTapChanger>
            <iidm:currentLimits1 permanentLimit="23094"/>
            <iidm:currentLimits2 permanentLimit="23094"/>
        </iidm:twoWindingsTransformer>
    </iidm:substation>
    <iidm:substation id="_324bf35a-84bb-4d14-b005-bbaaef147928" country="FR" tso="RTE">
        <iidm:voltageLevel id="1022_130" nominalV="130" highVoltageLimit="136.5" topologyKind="BUS_BREAKER">
            <iidm:busBreakerTopology>
                <iidm:bus id="1022_131" v="155.74691241598597" angle="21.861121384174773"/>
            </iidm:busBreakerTopology>
            <iidm:shunt id="1022-Cap" sectionCount="1" voltageRegulatorOn="false" bus="1022_131" connectableBus="1022_131" q="-71.766571134288199">
                <iidm:property name="qMax" value="50"/>
                <iidm:shuntLinearModel bPerSection="0.002958579920232296" maximumSectionCount="1"/>
            </iidm:shunt>
        </iidm:voltageLevel>
        <iidm:voltageLevel id="4022_400" nominalV="400" highVoltageLimit="420" topologyKind="BUS_BREAKER">
            <iidm:busBreakerTopology>
                <iidm:bus id="4022_401" v="458.05373256797884" angle="22.088262879317547"/>
            </iidm:busBreakerTopology>
        </iidm:voltageLevel>
        <iidm:voltageLevel id="B22___20" nominalV="20" highVoltageLimit="21" topologyKind="BUS_BREAKER">
            <iidm:busBreakerTopology>
                <iidm:bus id="B22___21" v="21.81970929812389" angle="20.551475059904661"/>
            </iidm:busBreakerTopology>
            <iidm:load id="22_1" loadType="UNDEFINED" p0="280.01199340820312" q0="79.90679931640625" bus="B22___21" connectableBus="B22___21" p="153.47922220162729" q="48.013088511644796"/>
        </iidm:voltageLevel>
        <iidm:voltageLevel id="BG05__15" nominalV="15" highVoltageLimit="15.750001907348633" topologyKind="BUS_BREAKER">
            <iidm:busBreakerTopology>
                <iidm:bus id="BG05__11" v="15.635602884251378" angle="23.456038050414751"/>
            </iidm:busBreakerTopology>
            <iidm:generator id="g05" energySource="HYDRO" minP="0" maxP="9999" voltageRegulatorOn="true" targetP="200" targetV="15.440999984741211" targetQ="60.0614013671875" bus="BG05__11" connectableBus="BG05__11" p="-55.17191046197204" q="170.58009653417173">
                <iidm:property name="genreCvg" value="AUTRE"/>
                <iidm:reactiveCapabilityCurve>
                    <iidm:point p="0" minQ="-250" maxQ="250"/>
                    <iidm:point p="9999" minQ="-250" maxQ="250"/>
                </iidm:reactiveCapabilityCurve>
            </iidm:generator>
        </iidm:voltageLevel>
        <iidm:twoWindingsTransformer id="Tr1022-4022" r="0" x="2.0280842781066895" g="0" b="0" ratedU1="400" ratedU2="130" bus1="4022_401" connectableBus1="4022_401" voltageLevelId1="4022_400" bus2="1022_131" connectableBus2="1022_131" voltageLevelId2="1022_130" p1="48.732985222345818" q1="341.51017667302187" p2="-48.732985222345391" q2="-332.09097222858361">
            <iidm:ratioTapChanger lowTapPosition="0" tapPosition="3" loadTapChangingCapabilities="false">
                <iidm:step r="0" x="0" g="0" b="0" rho="1.1111111640930176"/>
                <iidm:step r="0" x="0" g="0" b="0" rho="1.0989010334014893"/>
                <iidm:step r="0" x="0" g="0" b="0" rho="1.0869565010070801"/>
                <iidm:step r="0" x="0" g="0" b="0" rho="1.0752688646316528"/>
                <iidm:step r="0" x="0" g="0" b="0" rho="1.063829779624939"/>
                <iidm:step r="0" x="0" g="0" b="0" rho="1.0526316165924072"/>
                <iidm:step r="0" x="0" g="0" b="0" rho="1.0416667461395264"/>
                <iidm:step r="0" x="0" g="0" b="0" rho="1.0309277772903442"/>
                <iidm:step r="0" x="0" g="0" b="0" rho="1.0204081535339355"/>
                <iidm:step r="0" x="0" g="0" b="0" rho="1.0101009607315063"/>
                <iidm:step r="0" x="0" g="0" b="0" rho="1"/>
                <iidm:step r="0" x="0" g="0" b="0" rho="0.99009901285171509"/>
                <iidm:step r="0" x="0" g="0" b="0" rho="0.98039215803146362"/>
                <iidm:step r="0" x="0" g="0" b="0" rho="0.97087383270263672"/>
                <iidm:step r="0" x="0" g="0" b="0" rho="0.96153849363327026"/>
                <iidm:step r="0" x="0" g="0" b="0" rho="0.95238101482391357"/>
                <iidm:step r="0" x="0" g="0" b="0" rho="0.94339627027511597"/>
                <iidm:step r="0" x="0" g="0" b="0" rho="0.93457937240600586"/>
                <iidm:step r="0" x="0" g="0" b="0" rho="0.92592591047286987"/>
                <iidm:step r="0" x="0" g="0" b="0" rho="0.91743117570877075"/>
                <iidm:step r="0" x="0" g="0" b="0" rho="0.90909087657928467"/>
            </iidm:ratioTapChanger>
            <iidm:currentLimits1 permanentLimit="3700.820068359375"/>
            <iidm:currentLimits2 permanentLimit="3700.820068359375"/>
        </iidm:twoWindingsTransformer>
        <iidm:twoWindingsTransformer id="Tr1022-g5" r="0" x="0.13500003516674042" g="0" b="0" ratedU1="130" ratedU2="15" bus1="1022_131" connectableBus1="1022_131" voltageLevelId1="1022_130" bus2="BG05__11" connectableBus2="BG05__11" voltageLevelId2="BG05__15" p1="-55.171921187937656" q1="188.32897425298657" p2="55.171921187937677" q2="-170.58009653417184">
            <iidm:ratioTapChanger lowTapPosition="0" tapPosition="10" loadTapChangingCapabilities="false">
                <iidm:step r="0" x="0" g="0" b="0" rho="1.0526316165924072"/>
                <iidm:step r="0" x="0" g="0" b="0" rho="1.0416667461395264"/>
                <iidm:step r="0" x="0" g="0" b="0" rho="1.0309277772903442"/>
                <iidm:step r="0" x="0" g="0" b="0" rho="1.0204081535339355"/>
                <iidm:step r="0" x="0" g="0" b="0" rho="1.0101009607315063"/>
                <iidm:step r="0" x="0" g="0" b="0" rho="1"/>
                <iidm:step r="0" x="0" g="0" b="0" rho="0.99009901285171509"/>
                <iidm:step r="0" x="0" g="0" b="0" rho="0.98039215803146362"/>
                <iidm:step r="0" x="0" g="0" b="0" rho="0.97087383270263672"/>
                <iidm:step r="0" x="0" g="0" b="0" rho="0.96153849363327026"/>
                <iidm:step r="0" x="0" g="0" b="0" rho="0.95238101482391357"/>
            </iidm:ratioTapChanger>
            <iidm:currentLimits1 permanentLimit="9622.5"/>
            <iidm:currentLimits2 permanentLimit="9622.5"/>
        </iidm:twoWindingsTransformer>
        <iidm:twoWindingsTransformer id="Tr22-1022" r="0" x="0.071428664028644562" g="0" b="0" ratedU1="130" ratedU2="20" bus1="1022_131" connectableBus1="1022_131" voltageLevelId1="1022_130" bus2="B22___21" connectableBus2="B22___21" voltageLevelId2="B22___20" p1="153.47922361010475" q1="51.893004197325354" p2="-153.47922361010492" q2="-48.013090315032784">
            <iidm:ratioTapChanger lowTapPosition="0" tapPosition="29" targetDeadband="0" loadTapChangingCapabilities="true" regulating="true" targetV="20">
                <iidm:terminalRef id="Tr22-1022" side="TWO"/>
                <iidm:step r="0" x="0" g="0" b="0" rho="1.25"/>
                <iidm:step r="0" x="0" g="0" b="0" rho="1.2345678806304932"/>
                <iidm:step r="0" x="0" g="0" b="0" rho="1.2195122241973877"/>
                <iidm:step r="0" x="0" g="0" b="0" rho="1.2048193216323853"/>
                <iidm:step r="0" x="0" g="0" b="0" rho="1.1904761791229248"/>
                <iidm:step r="0" x="0" g="0" b="0" rho="1.1764705181121826"/>
                <iidm:step r="0" x="0" g="0" b="0" rho="1.1627906560897827"/>
                <iidm:step r="0" x="0" g="0" b="0" rho="1.1494252681732178"/>
                <iidm:step r="0" x="0" g="0" b="0" rho="1.1363636255264282"/>
                <iidm:step r="0" x="0" g="0" b="0" rho="1.1235954761505127"/>
                <iidm:step r="0" x="0" g="0" b="0" rho="1.1111111640930176"/>
                <iidm:step r="0" x="0" g="0" b="0" rho="1.0989010334014893"/>
                <iidm:step r="0" x="0" g="0" b="0" rho="1.0869565010070801"/>
                <iidm:step r="0" x="0" g="0" b="0" rho="1.0752688646316528"/>
                <iidm:step r="0" x="0" g="0" b="0" rho="1.063829779624939"/>
                <iidm:step r="0" x="0" g="0" b="0" rho="1.0526316165924072"/>
                <iidm:step r="0" x="0" g="0" b="0" rho="1.0416667461395264"/>
                <iidm:step r="0" x="0" g="0" b="0" rho="1.0309277772903442"/>
                <iidm:step r="0" x="0" g="0" b="0" rho="1.0204081535339355"/>
                <iidm:step r="0" x="0" g="0" b="0" rho="1.0101009607315063"/>
                <iidm:step r="0" x="0" g="0" b="0" rho="1"/>
                <iidm:step r="0" x="0" g="0" b="0" rho="0.99009901285171509"/>
                <iidm:step r="0" x="0" g="0" b="0" rho="0.98039215803146362"/>
                <iidm:step r="0" x="0" g="0" b="0" rho="0.97087383270263672"/>
                <iidm:step r="0" x="0" g="0" b="0" rho="0.96153849363327026"/>
                <iidm:step r="0" x="0" g="0" b="0" rho="0.95238101482391357"/>
                <iidm:step r="0" x="0" g="0" b="0" rho="0.94339627027511597"/>
                <iidm:step r="0" x="0" g="0" b="0" rho="0.93457937240600586"/>
                <iidm:step r="0" x="0" g="0" b="0" rho="0.92592591047286987"/>
                <iidm:step r="0" x="0" g="0" b="0" rho="0.91743117570877075"/>
                <iidm:step r="0" x="0" g="0" b="0" rho="0.90909087657928467"/>
                <iidm:step r="0" x="0" g="0" b="0" rho="0.90090090036392212"/>
                <iidm:step r="0" x="0" g="0" b="0" rho="0.8928571343421936"/>
            </iidm:ratioTapChanger>
            <iidm:currentLimits1 permanentLimit="16165.7998046875"/>
            <iidm:currentLimits2 permanentLimit="16165.7998046875"/>
        </iidm:twoWindingsTransformer>
    </iidm:substation>
    <iidm:substation id="_22d093c3-f6da-43b4-9b8d-c13a0e2906eb" country="FR" tso="RTE">
        <iidm:voltageLevel id="1041_130" nominalV="130" highVoltageLimit="136.5" topologyKind="BUS_BREAKER">
            <iidm:busBreakerTopology>
                <iidm:bus id="1041_131" v="164.15884541057346" angle="17.713462669613389"/>
            </iidm:busBreakerTopology>
            <iidm:shunt id="1041-Cap" sectionCount="1" voltageRegulatorOn="false" bus="1041_131" connectableBus="1041_131" q="-398.64095524379104">
                <iidm:property name="qMax" value="250"/>
                <iidm:shuntLinearModel bPerSection="0.014792900532484055" maximumSectionCount="1"/>
            </iidm:shunt>
        </iidm:voltageLevel>
        <iidm:voltageLevel id="B01___20" nominalV="20" highVoltageLimit="21" topologyKind="BUS_BREAKER">
            <iidm:busBreakerTopology>
                <iidm:bus id="B01___21" v="23.899452242014412" angle="16.520958552125968"/>
            </iidm:busBreakerTopology>
            <iidm:load id="01_1" loadType="UNDEFINED" p0="600" q0="148.19999694824219" bus="B01___21" connectableBus="B01___21" p="358.90350870366785" q="106.0549876636707"/>
        </iidm:voltageLevel>
        <iidm:twoWindingsTransformer id="Tr1-1041" r="0" x="0.03333326056599617" g="0" b="0" ratedU1="130" ratedU2="20" bus1="1041_131" connectableBus1="1041_131" voltageLevelId1="1041_130" bus2="B01___21" connectableBus2="B01___21" voltageLevelId2="B01___20" p1="358.90351451807493" q1="114.22860953014506" p2="-358.90351451807538" q2="-106.05499508933931">
            <iidm:ratioTapChanger lowTapPosition="0" tapPosition="25" targetDeadband="0" loadTapChangingCapabilities="true" regulating="true" targetV="20">
                <iidm:terminalRef id="Tr1-1041" side="TWO"/>
                <iidm:step r="0" x="0" g="0" b="0" rho="1.25"/>
                <iidm:step r="0" x="0" g="0" b="0" rho="1.2345678806304932"/>
                <iidm:step r="0" x="0" g="0" b="0" rho="1.2195122241973877"/>
                <iidm:step r="0" x="0" g="0" b="0" rho="1.2048193216323853"/>
                <iidm:step r="0" x="0" g="0" b="0" rho="1.1904761791229248"/>
                <iidm:step r="0" x="0" g="0" b="0" rho="1.1764705181121826"/>
                <iidm:step r="0" x="0" g="0" b="0" rho="1.1627906560897827"/>
                <iidm:step r="0" x="0" g="0" b="0" rho="1.1494252681732178"/>
                <iidm:step r="0" x="0" g="0" b="0" rho="1.1363636255264282"/>
                <iidm:step r="0" x="0" g="0" b="0" rho="1.1235954761505127"/>
                <iidm:step r="0" x="0" g="0" b="0" rho="1.1111111640930176"/>
                <iidm:step r="0" x="0" g="0" b="0" rho="1.0989010334014893"/>
                <iidm:step r="0" x="0" g="0" b="0" rho="1.0869565010070801"/>
                <iidm:step r="0" x="0" g="0" b="0" rho="1.0752688646316528"/>
                <iidm:step r="0" x="0" g="0" b="0" rho="1.063829779624939"/>
                <iidm:step r="0" x="0" g="0" b="0" rho="1.0526316165924072"/>
                <iidm:step r="0" x="0" g="0" b="0" rho="1.0416667461395264"/>
                <iidm:step r="0" x="0" g="0" b="0" rho="1.0309277772903442"/>
                <iidm:step r="0" x="0" g="0" b="0" rho="1.0204081535339355"/>
                <iidm:step r="0" x="0" g="0" b="0" rho="1.0101009607315063"/>
                <iidm:step r="0" x="0" g="0" b="0" rho="1"/>
                <iidm:step r="0" x="0" g="0" b="0" rho="0.99009901285171509"/>
                <iidm:step r="0" x="0" g="0" b="0" rho="0.98039215803146362"/>
                <iidm:step r="0" x="0" g="0" b="0" rho="0.97087383270263672"/>
                <iidm:step r="0" x="0" g="0" b="0" rho="0.96153849363327026"/>
                <iidm:step r="0" x="0" g="0" b="0" rho="0.95238101482391357"/>
                <iidm:step r="0" x="0" g="0" b="0" rho="0.94339627027511597"/>
                <iidm:step r="0" x="0" g="0" b="0" rho="0.93457937240600586"/>
                <iidm:step r="0" x="0" g="0" b="0" rho="0.92592591047286987"/>
                <iidm:step r="0" x="0" g="0" b="0" rho="0.91743117570877075"/>
                <iidm:step r="0" x="0" g="0" b="0" rho="0.90909087657928467"/>
                <iidm:step r="0" x="0" g="0" b="0" rho="0.90090090036392212"/>
                <iidm:step r="0" x="0" g="0" b="0" rho="0.8928571343421936"/>
            </iidm:ratioTapChanger>
            <iidm:currentLimits1 permanentLimit="34641"/>
            <iidm:currentLimits2 permanentLimit="34641"/>
        </iidm:twoWindingsTransformer>
    </iidm:substation>
    <iidm:substation id="_1a6fe4b6-a0fc-47fa-8946-62398ab9ae75" country="FR" tso="RTE">
        <iidm:voltageLevel id="1042_130" nominalV="130" highVoltageLimit="136.5" topologyKind="BUS_BREAKER">
            <iidm:busBreakerTopology>
                <iidm:bus id="1042_131" v="141.94901173508759" angle="30.81020162557099"/>
            </iidm:busBreakerTopology>
        </iidm:voltageLevel>
        <iidm:voltageLevel id="B02___20" nominalV="20" highVoltageLimit="21" topologyKind="BUS_BREAKER">
            <iidm:busBreakerTopology>
                <iidm:bus id="B02___21" v="21.488268387677429" angle="29.354327053244717"/>
            </iidm:busBreakerTopology>
            <iidm:load id="02_1" loadType="UNDEFINED" p0="330.0260009765625" q0="71.011299133300781" bus="B02___21" connectableBus="B02___21" p="177.06970005526307" q="40.88364824263985"/>
        </iidm:voltageLevel>
        <iidm:voltageLevel id="BG06__15" nominalV="15" highVoltageLimit="15.750001907348633" topologyKind="BUS_BREAKER">
            <iidm:busBreakerTopology>
                <iidm:bus id="BG06__11" v="15.132133568041146" angle="38.200242437830319"/>
            </iidm:busBreakerTopology>
            <iidm:generator id="g06" energySource="THERMAL" minP="0" maxP="9999" voltageRegulatorOn="true" targetP="360" targetV="15.126001358032227" targetQ="138.60000610351562" bus="BG06__11" connectableBus="BG06__11" p="-359.82943658363553" q="60.45483310871893">
                <iidm:property name="genreCvg" value="AUTRE"/>
                <iidm:reactiveCapabilityCurve>
                    <iidm:point p="0" minQ="-400" maxQ="400"/>
                    <iidm:point p="9999" minQ="-400" maxQ="400"/>
                </iidm:reactiveCapabilityCurve>
            </iidm:generator>
        </iidm:voltageLevel>
        <iidm:twoWindingsTransformer id="Tr1042-g6" r="0" x="0.084375016391277313" g="0" b="0" ratedU1="130" ratedU2="15" bus1="1042_131" connectableBus1="1042_131" voltageLevelId1="1042_130" bus2="BG06__11" connectableBus2="BG06__11" voltageLevelId2="BG06__15" p1="-359.82943658363558" q1="109.5112730464662" p2="359.8294365836357" q2="-60.454833108719001">
            <iidm:ratioTapChanger lowTapPosition="0" tapPosition="10" loadTapChangingCapabilities="false">
                <iidm:step r="0" x="0" g="0" b="0" rho="1.0526316165924072"/>
                <iidm:step r="0" x="0" g="0" b="0" rho="1.0416667461395264"/>
                <iidm:step r="0" x="0" g="0" b="0" rho="1.0309277772903442"/>
                <iidm:step r="0" x="0" g="0" b="0" rho="1.0204081535339355"/>
                <iidm:step r="0" x="0" g="0" b="0" rho="1.0101009607315063"/>
                <iidm:step r="0" x="0" g="0" b="0" rho="1"/>
                <iidm:step r="0" x="0" g="0" b="0" rho="0.99009901285171509"/>
                <iidm:step r="0" x="0" g="0" b="0" rho="0.98039215803146362"/>
                <iidm:step r="0" x="0" g="0" b="0" rho="0.97087383270263672"/>
                <iidm:step r="0" x="0" g="0" b="0" rho="0.96153849363327026"/>
                <iidm:step r="0" x="0" g="0" b="0" rho="0.95238101482391357"/>
            </iidm:ratioTapChanger>
            <iidm:currentLimits1 permanentLimit="15395.9990234375"/>
            <iidm:currentLimits2 permanentLimit="15395.9990234375"/>
        </iidm:twoWindingsTransformer>
        <iidm:twoWindingsTransformer id="Tr2-1042" r="0" x="0.066666767001152039" g="0" b="0" ratedU1="130" ratedU2="20" bus1="1042_131" connectableBus1="1042_131" voltageLevelId1="1042_130" bus2="B02___21" connectableBus2="B02___21" voltageLevelId2="B02___20" p1="177.06970446627892" q1="45.651821161744955" p2="-177.06970446627878" q2="-40.883654798762301">
            <iidm:ratioTapChanger lowTapPosition="0" tapPosition="21" targetDeadband="0" loadTapChangingCapabilities="true" regulating="true" targetV="20">
                <iidm:terminalRef id="Tr2-1042" side="TWO"/>
                <iidm:step r="0" x="0" g="0" b="0" rho="1.25"/>
                <iidm:step r="0" x="0" g="0" b="0" rho="1.2345678806304932"/>
                <iidm:step r="0" x="0" g="0" b="0" rho="1.2195122241973877"/>
                <iidm:step r="0" x="0" g="0" b="0" rho="1.2048193216323853"/>
                <iidm:step r="0" x="0" g="0" b="0" rho="1.1904761791229248"/>
                <iidm:step r="0" x="0" g="0" b="0" rho="1.1764705181121826"/>
                <iidm:step r="0" x="0" g="0" b="0" rho="1.1627906560897827"/>
                <iidm:step r="0" x="0" g="0" b="0" rho="1.1494252681732178"/>
                <iidm:step r="0" x="0" g="0" b="0" rho="1.1363636255264282"/>
                <iidm:step r="0" x="0" g="0" b="0" rho="1.1235954761505127"/>
                <iidm:step r="0" x="0" g="0" b="0" rho="1.1111111640930176"/>
                <iidm:step r="0" x="0" g="0" b="0" rho="1.0989010334014893"/>
                <iidm:step r="0" x="0" g="0" b="0" rho="1.0869565010070801"/>
                <iidm:step r="0" x="0" g="0" b="0" rho="1.0752688646316528"/>
                <iidm:step r="0" x="0" g="0" b="0" rho="1.063829779624939"/>
                <iidm:step r="0" x="0" g="0" b="0" rho="1.0526316165924072"/>
                <iidm:step r="0" x="0" g="0" b="0" rho="1.0416667461395264"/>
                <iidm:step r="0" x="0" g="0" b="0" rho="1.0309277772903442"/>
                <iidm:step r="0" x="0" g="0" b="0" rho="1.0204081535339355"/>
                <iidm:step r="0" x="0" g="0" b="0" rho="1.0101009607315063"/>
                <iidm:step r="0" x="0" g="0" b="0" rho="1"/>
                <iidm:step r="0" x="0" g="0" b="0" rho="0.99009901285171509"/>
                <iidm:step r="0" x="0" g="0" b="0" rho="0.98039215803146362"/>
                <iidm:step r="0" x="0" g="0" b="0" rho="0.97087383270263672"/>
                <iidm:step r="0" x="0" g="0" b="0" rho="0.96153849363327026"/>
                <iidm:step r="0" x="0" g="0" b="0" rho="0.95238101482391357"/>
                <iidm:step r="0" x="0" g="0" b="0" rho="0.94339627027511597"/>
                <iidm:step r="0" x="0" g="0" b="0" rho="0.93457937240600586"/>
                <iidm:step r="0" x="0" g="0" b="0" rho="0.92592591047286987"/>
                <iidm:step r="0" x="0" g="0" b="0" rho="0.91743117570877075"/>
                <iidm:step r="0" x="0" g="0" b="0" rho="0.90909087657928467"/>
                <iidm:step r="0" x="0" g="0" b="0" rho="0.90090090036392212"/>
                <iidm:step r="0" x="0" g="0" b="0" rho="0.8928571343421936"/>
            </iidm:ratioTapChanger>
            <iidm:currentLimits1 permanentLimit="17320.5"/>
            <iidm:currentLimits2 permanentLimit="17320.5"/>
        </iidm:twoWindingsTransformer>
    </iidm:substation>
    <iidm:substation id="_24b8bbc5-1f71-4d9f-a22f-2c1a9dc6b44b" country="FR" tso="RTE">
        <iidm:voltageLevel id="1043_130" nominalV="130" highVoltageLimit="136.5" topologyKind="BUS_BREAKER">
            <iidm:busBreakerTopology>
                <iidm:bus id="1043_131" v="160.82213422353593" angle="19.883571655382973"/>
            </iidm:busBreakerTopology>
            <iidm:shunt id="1043-Cap" sectionCount="1" voltageRegulatorOn="false" bus="1043_131" connectableBus="1043_131" q="-306.07948461733582">
                <iidm:property name="qMax" value="200"/>
                <iidm:shuntLinearModel bPerSection="0.011834300123155117" maximumSectionCount="1"/>
            </iidm:shunt>
        </iidm:voltageLevel>
        <iidm:voltageLevel id="B03___20" nominalV="20" highVoltageLimit="21" topologyKind="BUS_BREAKER">
            <iidm:busBreakerTopology>
                <iidm:bus id="B03___21" v="23.122705046889674" angle="18.492465680412106"/>
            </iidm:busBreakerTopology>
            <iidm:load id="03_1" loadType="UNDEFINED" p0="260" q0="83.842399597167969" bus="B03___21" connectableBus="B03___21" p="150.6809183166595" q="56.320112784726106"/>
        </iidm:voltageLevel>
        <iidm:voltageLevel id="BG07__15" nominalV="15" highVoltageLimit="15.750001907348633" topologyKind="BUS_BREAKER">
            <iidm:busBreakerTopology>
                <iidm:bus id="BG07__11" v="15.169743939883581" angle="26.373802825386559"/>
            </iidm:busBreakerTopology>
            <iidm:generator id="g07" energySource="THERMAL" minP="0" maxP="9999" voltageRegulatorOn="true" targetP="180" targetV="15.211499214172363" targetQ="60.400001525878906" bus="BG07__11" connectableBus="BG07__11" p="-179.57555095669187" q="214.82663497401316">
                <iidm:property name="genreCvg" value="AUTRE"/>
                <iidm:reactiveCapabilityCurve>
                    <iidm:point p="0" minQ="-200" maxQ="200"/>
                    <iidm:point p="9999" minQ="-200" maxQ="200"/>
                </iidm:reactiveCapabilityCurve>
            </iidm:generator>
        </iidm:voltageLevel>
        <iidm:twoWindingsTransformer id="Tr1043-g7" r="0" x="0.16875003278255463" g="0" b="0" ratedU1="130" ratedU2="15" bus1="1043_131" connectableBus1="1043_131" voltageLevelId1="1043_130" bus2="BG07__11" connectableBus2="BG07__11" voltageLevelId2="BG07__15" p1="-179.5755509566919" q1="272.31653885753553" p2="179.57555095669181" q2="-214.82663497401325">
            <iidm:ratioTapChanger lowTapPosition="0" tapPosition="10" loadTapChangingCapabilities="false">
                <iidm:step r="0" x="0" g="0" b="0" rho="1.0526316165924072"/>
                <iidm:step r="0" x="0" g="0" b="0" rho="1.0416667461395264"/>
                <iidm:step r="0" x="0" g="0" b="0" rho="1.0309277772903442"/>
                <iidm:step r="0" x="0" g="0" b="0" rho="1.0204081535339355"/>
                <iidm:step r="0" x="0" g="0" b="0" rho="1.0101009607315063"/>
                <iidm:step r="0" x="0" g="0" b="0" rho="1"/>
                <iidm:step r="0" x="0" g="0" b="0" rho="0.99009901285171509"/>
                <iidm:step r="0" x="0" g="0" b="0" rho="0.98039215803146362"/>
                <iidm:step r="0" x="0" g="0" b="0" rho="0.97087383270263672"/>
                <iidm:step r="0" x="0" g="0" b="0" rho="0.96153849363327026"/>
                <iidm:step r="0" x="0" g="0" b="0" rho="0.95238101482391357"/>
            </iidm:ratioTapChanger>
            <iidm:currentLimits1 permanentLimit="7697.99951171875"/>
            <iidm:currentLimits2 permanentLimit="7697.99951171875"/>
        </iidm:twoWindingsTransformer>
        <iidm:twoWindingsTransformer id="Tr3-1043" r="0" x="0.08695647120475769" g="0" b="0" ratedU1="130" ratedU2="20" bus1="1043_131" connectableBus1="1043_131" voltageLevelId1="1043_130" bus2="B03___21" connectableBus2="B03___21" voltageLevelId2="B03___20" p1="150.68092088812978" q1="60.52867550632093" p2="-150.68092088812966" q2="-56.320116287534937">
            <iidm:ratioTapChanger lowTapPosition="0" tapPosition="26" targetDeadband="0" loadTapChangingCapabilities="true" regulating="true" targetV="20">
                <iidm:terminalRef id="Tr3-1043" side="TWO"/>
                <iidm:step r="0" x="0" g="0" b="0" rho="1.25"/>
                <iidm:step r="0" x="0" g="0" b="0" rho="1.2345678806304932"/>
                <iidm:step r="0" x="0" g="0" b="0" rho="1.2195122241973877"/>
                <iidm:step r="0" x="0" g="0" b="0" rho="1.2048193216323853"/>
                <iidm:step r="0" x="0" g="0" b="0" rho="1.1904761791229248"/>
                <iidm:step r="0" x="0" g="0" b="0" rho="1.1764705181121826"/>
                <iidm:step r="0" x="0" g="0" b="0" rho="1.1627906560897827"/>
                <iidm:step r="0" x="0" g="0" b="0" rho="1.1494252681732178"/>
                <iidm:step r="0" x="0" g="0" b="0" rho="1.1363636255264282"/>
                <iidm:step r="0" x="0" g="0" b="0" rho="1.1235954761505127"/>
                <iidm:step r="0" x="0" g="0" b="0" rho="1.1111111640930176"/>
                <iidm:step r="0" x="0" g="0" b="0" rho="1.0989010334014893"/>
                <iidm:step r="0" x="0" g="0" b="0" rho="1.0869565010070801"/>
                <iidm:step r="0" x="0" g="0" b="0" rho="1.0752688646316528"/>
                <iidm:step r="0" x="0" g="0" b="0" rho="1.063829779624939"/>
                <iidm:step r="0" x="0" g="0" b="0" rho="1.0526316165924072"/>
                <iidm:step r="0" x="0" g="0" b="0" rho="1.0416667461395264"/>
                <iidm:step r="0" x="0" g="0" b="0" rho="1.0309277772903442"/>
                <iidm:step r="0" x="0" g="0" b="0" rho="1.0204081535339355"/>
                <iidm:step r="0" x="0" g="0" b="0" rho="1.0101009607315063"/>
                <iidm:step r="0" x="0" g="0" b="0" rho="1"/>
                <iidm:step r="0" x="0" g="0" b="0" rho="0.99009901285171509"/>
                <iidm:step r="0" x="0" g="0" b="0" rho="0.98039215803146362"/>
                <iidm:step r="0" x="0" g="0" b="0" rho="0.97087383270263672"/>
                <iidm:step r="0" x="0" g="0" b="0" rho="0.96153849363327026"/>
                <iidm:step r="0" x="0" g="0" b="0" rho="0.95238101482391357"/>
                <iidm:step r="0" x="0" g="0" b="0" rho="0.94339627027511597"/>
                <iidm:step r="0" x="0" g="0" b="0" rho="0.93457937240600586"/>
                <iidm:step r="0" x="0" g="0" b="0" rho="0.92592591047286987"/>
                <iidm:step r="0" x="0" g="0" b="0" rho="0.91743117570877075"/>
                <iidm:step r="0" x="0" g="0" b="0" rho="0.90909087657928467"/>
                <iidm:step r="0" x="0" g="0" b="0" rho="0.90090090036392212"/>
                <iidm:step r="0" x="0" g="0" b="0" rho="0.8928571343421936"/>
            </iidm:ratioTapChanger>
            <iidm:currentLimits1 permanentLimit="13279.0986328125"/>
            <iidm:currentLimits2 permanentLimit="13279.0986328125"/>
        </iidm:twoWindingsTransformer>
...